49 

C                   -0.209          -1.313           0.527
C                    0.314          -5.023          -1.799
C                   -1.393          -4.713          -5.779
C                    0.062         -10.006          -7.910
C                    0.333         -13.660          -5.392
C                    5.719         -15.731          -6.782
C                    7.635         -18.457         -10.847
C                    6.901         -15.023         -14.108
C                    3.341         -17.507         -17.370
C                    1.370         -13.890         -14.709
C                   -3.397         -10.229         -15.631
C                   -6.857         -13.173         -11.641
C                   -4.703         -17.009         -10.350
C                   -7.017         -20.666         -12.774
C                   -3.688         -21.055         -18.177
C                   -4.397         -18.834         -22.800
C                   -7.822         -19.427         -25.343
C                   -6.434         -19.167         -30.324
C                   -5.584         -22.263         -34.275
C                   -9.136         -26.376         -32.622
C                  -13.136         -23.226         -31.996
C                  -17.236         -20.193         -34.370
C                  -20.533         -18.044         -32.135
C                  -25.195         -15.391         -31.007
C                  -26.758          -9.965         -33.601
C                  -25.034          -4.702         -33.882
C                  -20.256          -5.527         -35.426
C                  -19.532          -8.189         -31.224
C                  -15.614         -10.719         -29.534
C                  -10.279          -9.461         -27.620
C                  -10.281          -9.504         -23.382
C                   -9.943          -7.301         -18.219
C                  -12.001          -9.444         -14.370
C                  -13.567         -12.850         -11.460
C                  -12.040         -17.097         -15.458
C                  -16.033         -18.455         -18.742
C                  -17.192         -17.897         -24.352
C                  -20.074         -13.993         -23.333
C                  -19.408         -11.930         -18.737
C                  -22.836         -15.597         -16.320
C                  -25.154         -19.952         -17.843
C                  -30.536         -20.537         -18.518
C                  -35.085         -17.276         -15.753
C                  -36.137         -12.282         -13.175
C                  -31.533         -10.128         -10.622
C                  -29.791         -15.537          -8.943
C                  -26.285         -17.213          -6.141
C                  -23.543         -24.329          -4.567
C                  -19.045         -26.389          -8.513
